LTspice 26.0.2 for Windows
Circuit: C:\Users\ishan\OneDrive\Documents\LTspice\TWO STAGE DIFF AMPLIFIER PROJECT.net
Start Time: Thu Jun 25 04:38:20 2026
solver = Normal
Maximum thread count: 12
tnom = 27
temp = 27
method = trap
WARNING: Node n010 is floating.
WARNING: Node n009 is floating.
WARNING: Node n012 is floating.
WARNING: Node n011 is floating.

Instance "Mn1": Length shorter than recommended for a level 1 MOSFET.
Instance "Mn2": Length shorter than recommended for a level 1 MOSFET.
Instance "M1": Length shorter than recommended for a level 1 MOSFET.
Instance "M1": Width narrower than recommended for a level 1 MOSFET.
Instance "M2": Length shorter than recommended for a level 1 MOSFET.
Instance "M2": Width narrower than recommended for a level 1 MOSFET.
Instance "M5": Length shorter than recommended for a level 1 MOSFET.
Instance "M5": Width narrower than recommended for a level 1 MOSFET.
Instance "M6": Length shorter than recommended for a level 1 MOSFET.
Instance "M4": Length shorter than recommended for a level 1 MOSFET.
Instance "M4": Width narrower than recommended for a level 1 MOSFET.
Instance "Mp2": Length shorter than recommended for a level 1 MOSFET.
Instance "Mp1": Length shorter than recommended for a level 1 MOSFET.
Instance "M3": Length shorter than recommended for a level 1 MOSFET.
Direct Newton iteration succeeded in finding operating point.
Total elapsed time: 0.138 seconds.

Files loaded:
C:\Users\ishan\OneDrive\Documents\LTspice\TWO STAGE DIFF AMPLIFIER PROJECT.net
C:\Users\ishan\AppData\Local\LTspice\lib\cmp\standard.mos

